
     RDKit          3D

 27 29  0  0  0  0  0  0  0  0999 V2000
   32.4597   25.9232   39.8872 C   0  0  0  0  0  0  0  0  0  0  0  0
   31.7974   27.1505   32.0137 C   0  0  0  0  0  0  0  0  0  0  0  0
   33.3900   28.8348   36.0841 N   0  0  0  0  0  0  0  0  0  0  0  0
   33.2013   27.9230   40.7958 C   0  0  0  0  0  0  0  0  0  0  0  0
   33.1880   30.0826   35.5537 C   0  0  0  0  0  0  0  0  0  0  0  0
   29.5250   26.3477   31.6328 C   0  0  0  0  0  0  0  0  0  0  0  0
   28.1651   28.7847   37.3705 C   0  0  0  0  0  0  0  0  0  0  0  0
   29.0320   27.0690   32.7037 C   0  0  0  0  0  0  0  0  0  0  0  0
   30.8758   26.3763   31.2906 C   0  0  0  0  0  0  0  0  0  0  0  0
   29.8564   27.8231   33.4914 C   0  0  0  0  0  0  0  0  0  0  0  0
   32.9330   25.1372   41.0552 C   0  0  0  0  0  0  0  0  0  0  0  0
   32.5430   27.3147   39.6742 C   0  0  0  0  0  0  0  0  0  0  0  0
   33.7217   25.7790   42.0434 C   0  0  0  0  0  0  0  0  0  0  0  0
   32.1812   28.0218   38.4477 O   0  0  0  0  0  0  0  0  0  0  0  0
   29.8119   28.8633   35.6136 C   0  0  0  0  0  0  0  0  0  0  0  0
   33.7881   31.0856   35.2283 O   0  0  0  0  0  0  0  0  0  0  0  0
   28.9016   28.3752   34.7019 C   0  0  0  0  0  0  0  0  0  0  0  0
   31.3084   27.8828   33.1165 C   0  0  0  0  0  0  0  0  0  0  0  0
   33.3606   28.2628   37.4552 C   0  0  0  0  0  0  0  0  0  0  0  0
   27.1410   28.5986   36.4031 C   0  0  0  0  0  0  0  0  0  0  0  0
   31.7999   30.2360   35.4430 C   0  0  0  0  0  0  0  0  0  0  0  0
   29.4598   28.9103   36.9864 C   0  0  0  0  0  0  0  0  0  0  0  0
   30.9743   29.2736   35.1311 C   0  0  0  0  0  0  0  0  0  0  0  0
   27.5060   28.4293   35.0713 C   0  0  0  0  0  0  0  0  0  0  0  0
   34.4785   27.9091   37.7979 O   0  0  0  0  0  0  0  0  0  0  0  0
   35.2626   27.4544   42.6366 N   0  0  0  0  0  0  0  0  0  0  0  0
   34.0571   27.1230   41.8722 C   0  0  0  0  0  0  0  0  0  0  0  0
  1 11  1  0
  1 12  2  0
  2  9  2  0
  2 18  1  0
  3  5  1  0
  3 19  1  0
  4 12  1  0
  4 27  1  0
  5 16  2  0
  5 21  1  0
  6  8  2  0
  6  9  1  0
  7 20  1  0
  7 22  2  0
  8 10  1  0
 10 17  1  0
 10 18  2  0
 11 13  2  0
 12 14  1  0
 13 27  1  0
 14 19  1  0
 15 17  1  0
 15 22  1  0
 15 23  1  0
 17 24  1  0
 19 25  2  0
 20 24  2  0
 21 23  1  0
 26 27  1  0
M  END
