
     RDKit          3D

 27 27  0  0  0  0  0  0  0  0999 V2000
   30.6507   29.6130   36.9620 C   0  0  0  0  0  0  0  0  0  0  0  0
   33.1993   28.0457   32.2496 C   0  0  0  0  0  0  0  0  0  0  0  0
   28.4997   27.9098   35.6177 O   0  0  0  0  0  0  0  0  0  0  0  0
   32.7391   27.2974   38.3443 C   0  0  0  0  0  0  0  0  0  0  0  0
   26.3193   29.4679   37.3807 C   0  0  0  0  0  0  0  0  0  0  0  0
   31.5157   28.7444   37.6172 C   0  0  0  0  0  0  0  0  0  0  0  0
   27.5965   29.3709   37.2555 C   0  0  0  0  0  0  0  0  0  0  0  0
   32.9936   26.2287   38.9905 C   0  0  0  0  0  0  0  0  0  0  0  0
   32.4208   26.9152   31.9463 C   0  0  0  0  0  0  0  0  0  0  0  0
   32.0211   28.2034   38.6619 C   0  0  0  0  0  0  0  0  0  0  0  0
   31.8504   30.3042   39.8577 C   0  0  0  0  0  0  0  0  0  0  0  0
   32.7023   27.9695   36.1081 C   0  0  0  0  0  0  0  0  0  0  0  0
   30.4263   25.5789   31.7966 C   0  0  0  0  0  0  0  0  0  0  0  0
   33.3680   27.4299   37.0563 N   0  0  0  0  0  0  0  0  0  0  0  0
   31.7003   26.8238   34.2845 C   0  0  0  0  0  0  0  0  0  0  0  0
   31.3098   28.9978   39.4393 O   0  0  0  0  0  0  0  0  0  0  0  0
   29.7158   30.2630   38.0375 C   0  0  0  0  0  0  0  0  0  0  0  0
   28.1364   29.2522   35.7753 C   0  0  0  0  0  0  0  0  0  0  0  0
   28.4216   29.6983   38.4803 C   0  0  0  0  0  0  0  0  0  0  0  0
   32.8738   27.5286   41.0660 C   0  0  0  0  0  0  0  0  0  0  0  0
   32.9889   26.0415   40.4660 C   0  0  0  0  0  0  0  0  0  0  0  0
   31.5218   26.3762   32.8426 C   0  0  0  0  0  0  0  0  0  0  0  0
   33.2267   28.5656   33.5831 C   0  0  0  0  0  0  0  0  0  0  0  0
   32.9627   26.7642   41.3160 C   0  0  0  0  0  0  0  0  0  0  0  0
   32.5425   27.8757   34.6865 C   0  0  0  0  0  0  0  0  0  0  0  0
   32.6237   26.3354   30.6893 O   0  0  0  0  0  0  0  0  0  0  0  0
   33.9503   28.5625   31.0249 C   0  0  0  0  0  0  0  0  0  0  0  0
  1  6  1  0
  1 17  1  0
  2  9  2  0
  2 23  1  0
  2 27  1  0
  3 18  1  0
  4  8  1  0
  4 10  1  0
  4 14  1  0
  5  7  2  0
  6 10  2  3
  7 18  1  0
  7 19  1  0
  8 21  2  3
  9 22  1  0
  9 26  1  0
 10 16  1  0
 11 16  1  0
 12 14  1  0
 12 25  1  0
 13 22  1  0
 15 22  1  0
 15 25  2  0
 17 19  1  0
 20 24  1  0
 21 24  1  0
 23 25  1  0
M  END
