
     RDKit          3D

 27 29  0  0  0  0  0  0  0  0999 V2000
   29.9395   28.0933   35.2659 C   0  0  0  0  0  0  0  0  0  0  0  0
   29.4369   28.2172   33.9396 C   0  0  0  0  0  0  0  0  0  0  0  0
   33.4337   28.4428   33.2030 N   0  0  0  0  0  0  0  0  0  0  0  0
   28.7653   29.2281   40.4496 O   0  0  0  0  0  0  0  0  0  0  0  0
   32.9697   27.1752   33.4624 C   0  0  0  0  0  0  0  0  0  0  0  0
   32.4647   28.1711   36.7150 C   0  0  0  0  0  0  0  0  0  0  0  0
   31.4515   27.3950   39.2348 O   0  0  0  0  0  0  0  0  0  0  0  0
   28.0180   28.2402   33.7148 C   0  0  0  0  0  0  0  0  0  0  0  0
   29.0152   28.1148   36.3356 C   0  0  0  0  0  0  0  0  0  0  0  0
   29.7963   27.0415   38.2285 O   0  0  0  0  0  0  0  0  0  0  0  0
   30.9155   27.4686   38.5927 C   0  0  0  0  0  0  0  0  0  0  0  0
   32.1665   28.1858   38.2550 C   0  0  0  0  0  0  0  0  0  0  0  0
   27.6030   28.0778   36.1437 C   0  0  0  0  0  0  0  0  0  0  0  0
   31.8434   26.8093   34.3411 C   0  0  0  0  0  0  0  0  0  0  0  0
   34.8615   28.7671   37.3580 C   0  0  0  0  0  0  0  0  0  0  0  0
   34.5620   28.3781   32.3521 C   0  0  0  0  0  0  0  0  0  0  0  0
   32.2057   29.7920   40.4647 C   0  0  0  0  0  0  0  0  0  0  0  0
   33.7977   28.4921   36.3632 C   0  0  0  0  0  0  0  0  0  0  0  0
   25.7951   27.8844   34.5973 F   0  0  0  0  0  0  0  0  0  0  0  0
   33.0970   28.9443   39.1475 C   0  0  0  0  0  0  0  0  0  0  0  0
   31.4585   27.7764   35.5313 C   0  0  0  0  0  0  0  0  0  0  0  0
   27.1279   28.0960   34.8102 C   0  0  0  0  0  0  0  0  0  0  0  0
   34.5084   29.0150   38.7032 C   0  0  0  0  0  0  0  0  0  0  0  0
   30.2974   29.7426   40.2057 C   0  0  0  0  0  0  0  0  0  0  0  0
   34.8151   27.0466   31.9445 C   0  0  0  0  0  0  0  0  0  0  0  0
   33.7112   30.9959   40.5977 C   0  0  0  0  0  0  0  0  0  0  0  0
   33.7814   26.2969   32.6862 C   0  0  0  0  0  0  0  0  0  0  0  0
  1  2  2  0
  1  9  1  0
  1 21  1  0
  2  8  1  0
  3  5  1  0
  3 16  1  0
  4 24  1  0
  5 14  1  0
  5 27  1  0
  6 12  1  0
  6 18  2  0
  6 21  1  0
  7 11  2  0
  8 22  2  0
  9 13  2  0
 10 11  1  0
 11 12  1  0
 12 20  1  0
 13 22  1  0
 14 21  1  0
 15 18  1  0
 15 23  2  0
 16 25  1  0
 17 20  1  0
 17 24  1  0
 17 26  1  0
 19 22  1  0
 20 23  1  0
 25 27  1  0
M  END
