
     RDKit          3D

 27 28  0  0  0  0  0  0  0  0999 V2000
   33.3806   29.7323   42.0761 C   0  0  0  0  0  0  0  0  0  0  0  0
   32.5569   28.7630   44.0172 O   0  0  0  0  0  0  0  0  0  0  0  0
   28.1723   26.9806   30.3884 N   0  0  0  0  0  0  0  0  0  0  0  0
   34.8207   28.0911   43.9255 C   0  0  0  0  0  0  0  0  0  0  0  0
   31.0189   28.4643   38.6440 C   0  0  0  0  0  0  0  0  0  0  0  0
   33.1623   27.8405   40.5446 C   0  0  0  0  0  0  0  0  0  0  0  0
   31.6947   28.1995   35.8345 N   0  0  0  0  0  0  0  0  0  0  0  0
   30.2488   27.7203   32.2252 C   0  0  0  0  0  0  0  0  0  0  0  0
   33.3606   27.6207   39.2001 N   0  0  0  0  0  0  0  0  0  0  0  0
   29.4580   27.2578   29.9079 C   0  0  0  0  0  0  0  0  0  0  0  0
   33.6517   29.3960   40.5477 C   0  0  0  0  0  0  0  0  0  0  0  0
   32.6832   27.7772   36.9033 C   0  0  0  0  0  0  0  0  0  0  0  0
   30.5367   28.5256   36.4212 C   0  0  0  0  0  0  0  0  0  0  0  0
   28.9018   27.3910   32.6868 C   0  0  0  0  0  0  0  0  0  0  0  0
   27.8797   27.0659   31.7566 C   0  0  0  0  0  0  0  0  0  0  0  0
   32.3421   27.9624   38.3024 C   0  0  0  0  0  0  0  0  0  0  0  0
   31.7477   28.0738   34.3727 C   0  0  0  0  0  0  0  0  0  0  0  0
   26.4647   26.8355   32.3032 C   0  0  0  0  0  0  0  0  0  0  0  0
   30.4951   27.5667   30.7570 C   0  0  0  0  0  0  0  0  0  0  0  0
   33.5870   28.4674   43.0118 N   0  0  0  0  0  0  0  0  0  0  0  0
   28.4747   28.6734   37.7008 C   0  0  0  0  0  0  0  0  0  0  0  0
   28.1768   27.1090   37.2610 C   0  0  0  0  0  0  0  0  0  0  0  0
   30.0517   28.6501   37.6077 C   0  0  0  0  0  0  0  0  0  0  0  0
   31.1051   28.5085   33.2944 N   0  0  0  0  0  0  0  0  0  0  0  0
   32.3660   27.3536   33.4931 C   0  0  0  0  0  0  0  0  0  0  0  0
   33.4773   27.2533   42.0037 C   0  0  0  0  0  0  0  0  0  0  0  0
   33.1015   26.7406   32.9920 O   0  0  0  0  0  0  0  0  0  0  0  0
  1 11  1  0
  2 20  1  0
  3 10  2  0
  3 15  1  0
  4 20  1  0
  5 16  1  0
  5 23  1  0
  6  9  1  0
  6 11  1  0
  6 26  1  0
  7 12  1  0
  7 13  1  0
  7 17  1  0
  8 14  1  0
  8 19  2  0
  8 24  1  0
  9 16  2  3
 10 19  1  0
 12 16  1  0
 13 23  2  0
 14 15  2  0
 15 18  1  0
 17 24  1  0
 17 25  2  0
 20 26  1  0
 21 22  1  0
 21 23  1  0
 25 27  2  0
M  END
