
     RDKit          3D

 27 29  0  0  0  0  0  0  0  0999 V2000
   32.8779   27.2878   39.8171 C   0  0  0  0  0  0  0  0  0  0  0  0
   28.0903   28.5664   35.3169 C   0  0  0  0  0  0  0  0  0  0  0  0
   29.4927   26.7082   38.5147 N   0  0  0  0  0  0  0  0  0  0  0  0
   37.1901   27.5635   42.2690 O   0  0  0  0  0  0  0  0  0  0  0  0
   31.6518   28.1214   28.8041 C   0  0  0  0  0  0  0  0  0  0  0  0
   28.4706   28.6656   37.4328 N   0  0  0  0  0  0  0  0  0  0  0  0
   28.8856   27.2737   32.6599 C   0  0  0  0  0  0  0  0  0  0  0  0
   35.6096   26.5985   40.4913 C   0  0  0  0  0  0  0  0  0  0  0  0
   29.3787   28.0679   38.3060 C   0  0  0  0  0  0  0  0  0  0  0  0
   29.2711   27.3466   31.3695 C   0  0  0  0  0  0  0  0  0  0  0  0
   33.7110   26.5941   38.8607 C   0  0  0  0  0  0  0  0  0  0  0  0
   35.0072   26.2282   39.1869 C   0  0  0  0  0  0  0  0  0  0  0  0
   29.2426   28.7126   34.6262 C   0  0  0  0  0  0  0  0  0  0  0  0
   29.6432   30.5328   36.1334 C   0  0  0  0  0  0  0  0  0  0  0  0
   30.4499   28.7046   38.8866 C   0  0  0  0  0  0  0  0  0  0  0  0
   31.4558   27.5705   39.2876 C   0  0  0  0  0  0  0  0  0  0  0  0
   28.2717   27.1411   30.2907 O   0  0  0  0  0  0  0  0  0  0  0  0
   29.4667   28.2699   33.3442 C   0  0  0  0  0  0  0  0  0  0  0  0
   30.3965   28.1072   31.2152 C   0  0  0  0  0  0  0  0  0  0  0  0
   32.8206   27.6520   30.9536 C   0  0  0  0  0  0  0  0  0  0  0  0
   30.6870   26.4294   39.1572 C   0  0  0  0  0  0  0  0  0  0  0  0
   31.5552   28.2052   30.2629 C   0  0  0  0  0  0  0  0  0  0  0  0
   28.8845   29.2115   36.2278 C   0  0  0  0  0  0  0  0  0  0  0  0
   33.4585   27.6340   41.1353 C   0  0  0  0  0  0  0  0  0  0  0  0
   30.3124   28.6627   32.4161 C   0  0  0  0  0  0  0  0  0  0  0  0
   34.8476   27.2174   41.4877 C   0  0  0  0  0  0  0  0  0  0  0  0
   35.9141   27.3980   42.9079 C   0  0  0  0  0  0  0  0  0  0  0  0
  1 11  2  0
  1 16  1  0
  1 24  1  0
  2 13  1  0
  2 23  1  0
  3  9  2  0
  3 21  1  0
  4 27  1  0
  5 22  1  0
  6  9  1  0
  6 23  1  0
  7 10  1  0
  7 18  1  0
  8 12  2  0
  8 26  1  0
  9 15  1  0
 10 17  1  0
 10 19  1  0
 11 12  1  0
 13 18  1  0
 14 23  1  0
 15 16  1  0
 16 21  1  0
 18 25  2  0
 19 22  1  0
 19 25  1  0
 20 22  1  0
 24 26  2  0
 26 27  1  0
M  END
