
     RDKit          3D

 27 28  0  0  0  0  0  0  0  0999 V2000
   34.4766   27.0584   35.9512 C   0  0  0  0  0  0  0  0  0  0  0  0
   35.2867   26.4885   38.1897 C   0  0  0  0  0  0  0  0  0  0  0  0
   35.4121   26.4435   36.7714 C   0  0  0  0  0  0  0  0  0  0  0  0
   28.9030   28.5230   37.0002 C   0  0  0  0  0  0  0  0  0  0  0  0
   32.1518   29.8680   41.0663 C   0  0  0  0  0  0  0  0  0  0  0  0
   30.6535   27.8171   32.9102 C   0  0  0  0  0  0  0  0  0  0  0  0
   30.6487   27.6196   31.4435 C   0  0  0  0  0  0  0  0  0  0  0  0
   32.1642   28.5096   38.8347 C   0  0  0  0  0  0  0  0  0  0  0  0
   28.5648   27.1618   33.0370 C   0  0  0  0  0  0  0  0  0  0  0  0
   29.4903   27.5602   33.6068 C   0  0  0  0  0  0  0  0  0  0  0  0
   28.9203   27.7356   34.9891 N   0  0  0  0  0  0  0  0  0  0  0  0
   27.8666   27.4184   35.0554 C   0  0  0  0  0  0  0  0  0  0  0  0
   31.4792   28.6120   37.6733 O   0  0  0  0  0  0  0  0  0  0  0  0
   26.7468   27.0414   35.1365 O   0  0  0  0  0  0  0  0  0  0  0  0
   32.8249   29.7845   39.4965 C   0  0  0  0  0  0  0  0  0  0  0  0
   33.3719   27.7053   36.5737 C   0  0  0  0  0  0  0  0  0  0  0  0
   30.3597   28.5896   37.5156 C   0  0  0  0  0  0  0  0  0  0  0  0
   28.5663   27.9935   35.9207 C   0  0  0  0  0  0  0  0  0  0  0  0
   28.2899   26.9287   31.7141 C   0  0  0  0  0  0  0  0  0  0  0  0
   34.2685   27.1361   38.7998 C   0  0  0  0  0  0  0  0  0  0  0  0
   33.2761   27.7620   38.0068 C   0  0  0  0  0  0  0  0  0  0  0  0
   34.2021   29.4180   40.0006 O   0  0  0  0  0  0  0  0  0  0  0  0
   34.7664   30.4423   40.8233 C   0  0  0  0  0  0  0  0  0  0  0  0
   29.0177   29.4387   38.9317 O   0  0  0  0  0  0  0  0  0  0  0  0
   29.3803   28.8265   37.7809 C   0  0  0  0  0  0  0  0  0  0  0  0
   29.3616   27.1356   30.8809 C   0  0  0  0  0  0  0  0  0  0  0  0
   33.1953   30.5773   37.9149 O   0  0  0  0  0  0  0  0  0  0  0  0
  1  3  2  0
  1 16  1  0
  2  3  1  0
  2 20  2  0
  4 18  2  0
  4 25  2  0
  5 15  1  0
  6  7  1  0
  6 10  1  0
  7 26  1  0
  8 13  1  0
  8 15  1  0
  8 21  1  0
  9 10  2  0
  9 19  1  0
 10 11  1  0
 11 12  1  0
 11 18  1  0
 12 14  1  0
 13 17  1  0
 15 22  1  0
 15 27  1  0
 16 21  2  0
 17 25  1  0
 19 26  1  0
 20 21  1  0
 22 23  1  0
 24 25  1  0
M  END
