REMARK  Name = 
REMARK  12 active torsions:
REMARK  status: ('A' for Active; 'I' for Inactive)
REMARK    1  A    between atoms: C_1  and  C_15
REMARK    2  A    between atoms: C_1  and  C_20
REMARK    3  A    between atoms: C_4  and  C_7
REMARK    4  A    between atoms: C_5  and  N_17
REMARK    5  A    between atoms: C_7  and  C_15
REMARK    6  A    between atoms: C_9  and  C_25
REMARK    7  A    between atoms: C_11  and  C_21
REMARK    8  A    between atoms: N_17  and  C_27
REMARK    9  A    between atoms: C_20  and  N_24
REMARK   10  A    between atoms: C_21  and  N_24
REMARK   11  A    between atoms: C_23  and  C_27
REMARK   12  A    between atoms: N_24  and  C_25
REMARK                            x       y       z     vdW  Elec       q    Type
REMARK                         _______ _______ _______ _____ _____    ______ ____
ROOT
ATOM      1  N   UNL     1      31.030  28.286  34.891  0.00  0.00    +0.000 NA
ENDROOT
BRANCH   1   2
ATOM      2  C   UNL     1      30.951  27.396  33.662  0.00  0.00    +0.000 C 
BRANCH   2   3
ATOM      3  C   UNL     1      29.451  27.053  33.495  0.00  0.00    +0.000 C 
BRANCH   3   4
ATOM      4  C   UNL     1      28.806  28.108  32.607  0.00  0.00    +0.000 C 
BRANCH   4   5
ATOM      5  C   UNL     1      28.551  27.418  31.217  0.00  0.00    +0.000 C 
BRANCH   5   6
ATOM      6  C   UNL     1      27.337  26.450  31.468  0.00  0.00    +0.000 C 
ATOM      7  C   UNL     1      26.348  27.241  32.399  0.00  0.00    +0.000 C 
ENDBRANCH   5   6
ENDBRANCH   4   5
ENDBRANCH   3   4
ENDBRANCH   2   3
ENDBRANCH   1   2
BRANCH   1   8
ATOM      8  C   UNL     1      29.727  28.503  35.411  0.00  0.00    +0.000 C 
BRANCH   8  12
ATOM      9  C   UNL     1      27.465  27.558  37.992  0.00  0.00    +0.000 C 
ATOM     10  O   UNL     1      30.972  30.445  37.452  0.00  0.00    +0.000 OA
ATOM     11  C   UNL     1      29.811  29.674  37.765  0.00  0.00    +0.000 C 
ATOM     12  C   UNL     1      29.370  28.588  36.864  0.00  0.00    +0.000 C 
ATOM     13  C   UNL     1      27.195  28.427  39.041  0.00  0.00    +0.000 C 
ATOM     14  C   UNL     1      29.095  30.063  38.962  0.00  0.00    +0.000 C 
ATOM     15  C   UNL     1      27.912  29.529  39.497  0.00  0.00    +0.000 C 
ATOM     16  C   UNL     1      28.433  27.620  37.063  0.00  0.00    +0.000 C 
ENDBRANCH   8  12
ENDBRANCH   1   8
BRANCH   1  17
ATOM     17  C   UNL     1      32.447  28.726  35.130  0.00  0.00    +0.000 C 
BRANCH  17  21
ATOM     18  C   UNL     1      32.863  28.476  37.592  0.00  0.00    +0.000 C 
ATOM     19  C   UNL     1      34.940  27.474  38.299  0.00  0.00    +0.000 C 
ATOM     20  C   UNL     1      33.803  28.232  38.608  0.00  0.00    +0.000 C 
ATOM     21  C   UNL     1      33.071  27.918  36.300  0.00  0.00    +0.000 C 
ATOM     22  C   UNL     1      34.978  26.615  37.133  0.00  0.00    +0.000 C 
ATOM     23  C   UNL     1      34.037  26.850  36.107  0.00  0.00    +0.000 C 
BRANCH  19  24
ATOM     24  N   UNL     1      36.025  28.062  38.948  0.00  0.00    +0.000 NA
BRANCH  24  25
ATOM     25  C   UNL     1      36.242  29.750  38.885  0.00  0.00    +0.000 C 
BRANCH  25  27
ATOM     26  C   UNL     1      36.195  31.154  37.873  0.00  0.00    +0.000 C 
ATOM     27  C   UNL     1      37.354  30.166  37.857  0.00  0.00    +0.000 C 
ENDBRANCH  25  27
ENDBRANCH  24  25
ENDBRANCH  19  24
ENDBRANCH  17  21
ENDBRANCH   1  17
TORSDOF 12
