
     RDKit          3D

 19 19  0  0  0  0  0  0  0  0999 V2000
   26.7021   58.3409   87.6089 C   0  0  0  0  0  0  0  0  0  0  0  0
   27.2669   57.4316   85.2709 C   0  0  0  0  0  0  0  0  0  0  0  0
   24.0201   54.5930   90.5765 C   0  0  0  0  0  0  0  0  0  0  0  0
   27.9740   59.6476   85.8099 C   0  0  0  0  0  0  0  0  0  0  0  0
   27.3365   57.4966   90.1429 C   0  0  0  0  0  0  0  0  0  0  0  0
   27.3543   58.4835   86.1893 C   0  0  0  0  0  0  0  0  0  0  0  0
   25.4624   57.7839   88.5008 C   0  0  0  0  0  0  0  0  0  0  0  0
   25.1693   56.3104   88.4440 C   0  0  0  0  0  0  0  0  0  0  0  0
   28.3616   58.8036   83.6469 C   0  0  0  0  0  0  0  0  0  0  0  0
   24.6528   53.5507   91.3073 O   0  0  0  0  0  0  0  0  0  0  0  0
   26.2248   55.6928   91.3259 C   0  0  0  0  0  0  0  0  0  0  0  0
   27.4329   58.7007   90.0475 N   0  0  0  0  0  0  0  0  0  0  0  0
   28.6882   58.0117   90.4824 N   0  0  0  0  0  0  0  0  0  0  0  0
   28.4970   59.8122   84.5518 C   0  0  0  0  0  0  0  0  0  0  0  0
   24.8560   57.0133   89.7080 C   0  0  0  0  0  0  0  0  0  0  0  0
   27.2057   56.2159   90.2989 C   0  0  0  0  0  0  0  0  0  0  0  0
   28.4664   55.5522   90.3755 O   0  0  0  0  0  0  0  0  0  0  0  0
   27.8058   57.5711   84.0304 C   0  0  0  0  0  0  0  0  0  0  0  0
   24.7813   55.9312   90.8567 C   0  0  0  0  0  0  0  0  0  0  0  0
  1  6  1  0
  1  7  1  0
  2  6  2  0
  2 18  1  0
  3 10  1  0
  3 19  1  0
  4  6  1  0
  4 14  2  0
  5 12  2  0
  5 13  1  0
  5 16  1  0
  7  8  1  0
  8 15  1  0
  9 14  1  0
  9 18  2  0
 11 16  1  0
 11 19  1  0
 15 19  1  0
 16 17  1  0
M  END
