
     RDKit          3D

 19 20  0  0  0  0  0  0  0  0999 V2000
   24.6247   56.6250   84.4154 C   0  0  0  0  0  0  0  0  0  0  0  0
   28.7117   58.6456   90.7985 O   0  0  0  0  0  0  0  0  0  0  0  0
   27.1509   58.1471   86.8035 C   0  0  0  0  0  0  0  0  0  0  0  0
   25.5301   56.6334   88.5791 O   0  0  0  0  0  0  0  0  0  0  0  0
   25.0386   56.0398   89.7392 C   0  0  0  0  0  0  0  0  0  0  0  0
   24.0098   55.8201   86.6594 C   0  0  0  0  0  0  0  0  0  0  0  0
   28.2871   58.6723   89.6074 C   0  0  0  0  0  0  0  0  0  0  0  0
   25.6971   57.3935   84.9725 C   0  0  0  0  0  0  0  0  0  0  0  0
   27.6600   58.5906   85.4390 C   0  0  0  0  0  0  0  0  0  0  0  0
   27.1992   56.7661   91.1425 C   0  0  0  0  0  0  0  0  0  0  0  0
   25.9513   57.3394   86.3637 C   0  0  0  0  0  0  0  0  0  0  0  0
   28.0571   54.4507   91.0395 O   0  0  0  0  0  0  0  0  0  0  0  0
   27.3305   57.2058   92.4174 O   0  0  0  0  0  0  0  0  0  0  0  0
   25.1053   56.5587   87.2107 C   0  0  0  0  0  0  0  0  0  0  0  0
   25.8943   57.1991   90.1956 C   0  0  0  0  0  0  0  0  0  0  0  0
   26.5695   58.3829   84.3859 O   0  0  0  0  0  0  0  0  0  0  0  0
   26.9087   55.3185   91.2970 C   0  0  0  0  0  0  0  0  0  0  0  0
   23.7865   55.8416   85.2517 C   0  0  0  0  0  0  0  0  0  0  0  0
   28.3895   57.2647   90.3749 C   0  0  0  0  0  0  0  0  0  0  0  0
  1  8  2  0
  1 18  1  0
  2  7  1  0
  2 19  1  0
  3  9  1  0
  3 11  1  0
  4  5  1  0
  4 14  1  0
  5 15  1  0
  6 14  1  0
  6 18  2  0
  8 11  1  0
  8 16  1  0
  9 16  1  0
 10 13  1  0
 10 15  1  0
 10 17  1  0
 10 19  1  0
 11 14  2  0
 12 17  1  0
M  END
