
     RDKit          3D

 19 19  0  0  0  0  0  0  0  0999 V2000
   27.3747   58.1616   88.8618 C   0  0  0  0  0  0  0  0  0  0  0  0
   29.5400   59.5237   86.3910 O   0  0  0  0  0  0  0  0  0  0  0  0
   24.5577   57.6096   84.6024 C   0  0  0  0  0  0  0  0  0  0  0  0
   26.0939   57.7818   89.7716 C   0  0  0  0  0  0  0  0  0  0  0  0
   29.1445   57.2393   86.5244 O   0  0  0  0  0  0  0  0  0  0  0  0
   25.2479   54.5075   91.9393 C   0  0  0  0  0  0  0  0  0  0  0  0
   24.2178   56.2022   86.7587 C   0  0  0  0  0  0  0  0  0  0  0  0
   23.1481   53.8258   91.1483 O   0  0  0  0  0  0  0  0  0  0  0  0
   26.1169   55.6311   91.6094 C   0  0  0  0  0  0  0  0  0  0  0  0
   24.9903   57.2386   85.9423 C   0  0  0  0  0  0  0  0  0  0  0  0
   28.1087   56.8931   88.9649 O   0  0  0  0  0  0  0  0  0  0  0  0
   25.7255   56.4042   90.4555 C   0  0  0  0  0  0  0  0  0  0  0  0
   27.3567   58.6239   87.3144 C   0  0  0  0  0  0  0  0  0  0  0  0
   29.7820   60.5872   87.3792 C   0  0  0  0  0  0  0  0  0  0  0  0
   25.2086   53.4838   92.9203 O   0  0  0  0  0  0  0  0  0  0  0  0
   24.2808   54.5988   91.0196 C   0  0  0  0  0  0  0  0  0  0  0  0
   28.8078   58.3867   86.6922 C   0  0  0  0  0  0  0  0  0  0  0  0
   25.9716   58.1219   86.6329 C   0  0  0  0  0  0  0  0  0  0  0  0
   24.6257   55.6381   90.0721 C   0  0  0  0  0  0  0  0  0  0  0  0
  1  4  1  0
  1 11  1  0
  1 13  1  0
  2 14  1  0
  2 17  1  0
  3 10  1  0
  4 12  1  0
  5 17  2  0
  6  9  1  0
  6 15  1  0
  6 16  2  0
  7 10  1  0
  8 16  1  0
  9 12  2  0
 10 18  1  0
 12 19  1  0
 13 17  1  0
 13 18  1  0
 16 19  1  0
M  END
