
     RDKit          3D

 19 20  0  0  0  0  0  0  0  0999 V2000
   27.9474   57.0210   89.3804 C   0  0  0  0  0  0  0  0  0  0  0  0
   27.7894   58.0949   86.9180 C   0  0  0  0  0  0  0  0  0  0  0  0
   24.1706   57.0000   86.9609 C   0  0  0  0  0  0  0  0  0  0  0  0
   25.2858   57.1008   87.7740 N   0  0  0  0  0  0  0  0  0  0  0  0
   27.8016   57.5050   88.1781 C   0  0  0  0  0  0  0  0  0  0  0  0
   27.9930   57.4701   91.8612 O   0  0  0  0  0  0  0  0  0  0  0  0
   23.0627   56.3156   87.2403 C   0  0  0  0  0  0  0  0  0  0  0  0
   28.8318   58.9013   87.0270 N   0  0  0  0  0  0  0  0  0  0  0  0
   26.6510   57.2227   91.5140 C   0  0  0  0  0  0  0  0  0  0  0  0
   26.4407   56.7942   90.0422 C   0  0  0  0  0  0  0  0  0  0  0  0
   25.4312   56.4781   88.9530 C   0  0  0  0  0  0  0  0  0  0  0  0
   26.9865   58.1087   85.5953 C   0  0  0  0  0  0  0  0  0  0  0  0
   29.1077   59.9377   86.0980 C   0  0  0  0  0  0  0  0  0  0  0  0
   28.5566   55.6971   90.1330 O   0  0  0  0  0  0  0  0  0  0  0  0
   24.3337   55.4861   89.2901 C   0  0  0  0  0  0  0  0  0  0  0  0
   24.6164   54.6100   90.3889 O   0  0  0  0  0  0  0  0  0  0  0  0
   27.2797   59.1350   84.6765 C   0  0  0  0  0  0  0  0  0  0  0  0
   23.1235   55.4804   88.4119 C   0  0  0  0  0  0  0  0  0  0  0  0
   28.3319   60.0917   84.9356 C   0  0  0  0  0  0  0  0  0  0  0  0
  1  5  1  0
  1 10  1  0
  1 14  1  0
  2  5  1  0
  2  8  2  0
  2 12  1  0
  3  4  2  0
  3  7  1  0
  4 11  1  0
  6  9  1  0
  7 18  2  0
  8 13  1  0
  9 10  1  0
 10 11  1  0
 11 15  1  0
 12 17  2  0
 13 19  2  0
 15 16  1  0
 15 18  1  0
 17 19  1  0
M  END
