
     RDKit          3D

 19 20  0  0  0  0  0  0  0  0999 V2000
   24.0402   55.0647   90.9292 C   0  0  0  0  0  0  0  0  0  0  0  0
   21.9594   53.6208   90.8642 C   0  0  0  0  0  0  0  0  0  0  0  0
   28.4168   57.3173   84.7238 N   0  0  0  0  0  0  0  0  0  0  0  0
   28.4029   59.6665   88.1444 C   0  0  0  0  0  0  0  0  0  0  0  0
   24.8241   56.5820   88.9734 C   0  0  0  0  0  0  0  0  0  0  0  0
   27.6920   56.9632   90.3391 C   0  0  0  0  0  0  0  0  0  0  0  0
   29.6893   59.7011   87.1862 C   0  0  0  0  0  0  0  0  0  0  0  0
   29.3526   59.1331   85.7793 C   0  0  0  0  0  0  0  0  0  0  0  0
   23.6853   55.6569   89.5384 C   0  0  0  0  0  0  0  0  0  0  0  0
   27.9444   58.4267   85.6114 C   0  0  0  0  0  0  0  0  0  0  0  0
   23.1925   54.0354   91.5506 C   0  0  0  0  0  0  0  0  0  0  0  0
   28.4899   58.0638   89.7143 N   0  0  0  0  0  0  0  0  0  0  0  0
   28.3849   57.9671   88.2778 C   0  0  0  0  0  0  0  0  0  0  0  0
   25.3353   55.6643   91.6019 C   0  0  0  0  0  0  0  0  0  0  0  0
   28.4089   56.2756   91.1729 O   0  0  0  0  0  0  0  0  0  0  0  0
   26.0638   56.4392   90.1501 C   0  0  0  0  0  0  0  0  0  0  0  0
   21.5857   54.2110   89.5696 C   0  0  0  0  0  0  0  0  0  0  0  0
   22.4357   55.2161   88.9063 C   0  0  0  0  0  0  0  0  0  0  0  0
   28.6295   60.9594   88.9965 O   0  0  0  0  0  0  0  0  0  0  0  0
  1  9  2  0
  1 11  1  0
  1 14  1  0
  2 11  2  0
  2 17  1  0
  3 10  1  0
  4  7  1  0
  4 13  1  0
  4 19  1  0
  5  9  1  0
  5 16  1  0
  6 12  1  0
  6 15  2  0
  6 16  1  0
  7  8  1  0
  8 10  1  0
  9 18  1  0
 12 13  1  0
 14 16  1  0
 17 18  2  0
M  END
