
     RDKit          3D

 19 19  0  0  0  0  0  0  0  0999 V2000
   27.8595   59.4158   86.4119 C   0  0  0  0  0  0  0  0  0  0  0  0
   26.8708   58.2654   86.9077 C   0  0  0  0  0  0  0  0  0  0  0  0
   26.6689   55.1740   90.9436 C   0  0  0  0  0  0  0  0  0  0  0  0
   25.8276   54.7440   92.1591 C   0  0  0  0  0  0  0  0  0  0  0  0
   27.7825   54.5598   90.7167 O   0  0  0  0  0  0  0  0  0  0  0  0
   24.9647   56.2551   89.5444 O   0  0  0  0  0  0  0  0  0  0  0  0
   26.1769   56.2602   89.9922 C   0  0  0  0  0  0  0  0  0  0  0  0
   27.4498   62.1233   83.9634 C   0  0  0  0  0  0  0  0  0  0  0  0
   24.4741   54.1618   94.7333 C   0  0  0  0  0  0  0  0  0  0  0  0
   24.5896   53.8750   92.1688 C   0  0  0  0  0  0  0  0  0  0  0  0
   27.1702   58.0187   88.4109 C   0  0  0  0  0  0  0  0  0  0  0  0
   28.1022   59.1679   84.8615 C   0  0  0  0  0  0  0  0  0  0  0  0
   26.3270   60.2163   81.9752 C   0  0  0  0  0  0  0  0  0  0  0  0
   27.1487   57.1153   89.4423 N   0  0  0  0  0  0  0  0  0  0  0  0
   25.6963   55.0058   94.7012 C   0  0  0  0  0  0  0  0  0  0  0  0
   26.3699   55.3009   93.4256 C   0  0  0  0  0  0  0  0  0  0  0  0
   27.8284   60.5328   84.0284 C   0  0  0  0  0  0  0  0  0  0  0  0
   27.8018   60.1751   82.4906 C   0  0  0  0  0  0  0  0  0  0  0  0
   23.9121   53.5934   93.4688 C   0  0  0  0  0  0  0  0  0  0  0  0
  1  2  1  0
  1 12  1  0
  2 11  1  0
  3  4  1  0
  3  5  1  0
  3  7  1  0
  4 10  2  0
  4 16  1  0
  6  7  2  0
  7 14  1  0
  8 17  1  0
  9 15  1  0
  9 19  2  0
 10 19  1  0
 11 14  1  0
 12 17  1  0
 13 18  1  0
 15 16  2  0
 17 18  1  0
M  END
