
     RDKit          3D

 19 19  0  0  0  0  0  0  0  0999 V2000
   26.6142   57.2479   90.6868 C   0  0  0  0  0  0  0  0  0  0  0  0
   23.7333   55.9494   87.1513 C   0  0  0  0  0  0  0  0  0  0  0  0
   23.2570   56.5506   84.6928 C   0  0  0  0  0  0  0  0  0  0  0  0
   26.1222   57.3377   84.6665 O   0  0  0  0  0  0  0  0  0  0  0  0
   25.5127   54.5598   92.0648 O   0  0  0  0  0  0  0  0  0  0  0  0
   27.1067   56.0922   93.8059 O   0  0  0  0  0  0  0  0  0  0  0  0
   24.5023   56.2063   88.3616 C   0  0  0  0  0  0  0  0  0  0  0  0
   28.6118   57.9155   86.9394 C   0  0  0  0  0  0  0  0  0  0  0  0
   26.1536   57.5513   87.0526 C   0  0  0  0  0  0  0  0  0  0  0  0
   25.7288   57.0719   88.3166 C   0  0  0  0  0  0  0  0  0  0  0  0
   25.4877   57.1588   85.8006 C   0  0  0  0  0  0  0  0  0  0  0  0
   26.6566   57.5584   89.3084 N   0  0  0  0  0  0  0  0  0  0  0  0
   27.2530   58.5276   87.1469 C   0  0  0  0  0  0  0  0  0  0  0  0
   27.3656   56.1462   92.5455 C   0  0  0  0  0  0  0  0  0  0  0  0
   28.9788   56.6147   87.4468 O   0  0  0  0  0  0  0  0  0  0  0  0
   28.5652   56.4180   91.8615 O   0  0  0  0  0  0  0  0  0  0  0  0
   24.2179   56.5078   85.9075 N   0  0  0  0  0  0  0  0  0  0  0  0
   26.1756   55.8842   91.5084 C   0  0  0  0  0  0  0  0  0  0  0  0
   29.5020   59.1572   87.0422 C   0  0  0  0  0  0  0  0  0  0  0  0
  1 12  1  0
  1 18  1  0
  2  7  2  0
  2 17  1  0
  3 17  1  0
  4 11  2  0
  5 18  1  0
  6 14  2  0
  7 10  1  0
  8 13  1  0
  8 15  1  0
  8 19  1  0
  9 10  2  0
  9 11  1  0
  9 13  1  0
 10 12  1  0
 11 17  1  0
 14 16  1  0
 14 18  1  0
M  END
