
     RDKit          3D

 19 20  0  0  0  0  0  0  0  0999 V2000
   26.3462   57.5083   85.7554 C   0  0  0  0  0  0  0  0  0  0  0  0
   23.6731   53.6680   91.7244 N   0  0  0  0  0  0  0  0  0  0  0  0
   26.4890   56.3271   91.6299 C   0  0  0  0  0  0  0  0  0  0  0  0
   27.3143   57.3516   88.3866 C   0  0  0  0  0  0  0  0  0  0  0  0
   26.7339   56.3441   93.0266 N   0  0  0  0  0  0  0  0  0  0  0  0
   27.7461   57.5866   85.9529 C   0  0  0  0  0  0  0  0  0  0  0  0
   24.9971   54.6772   93.5351 C   0  0  0  0  0  0  0  0  0  0  0  0
   25.3555   55.4229   91.0893 C   0  0  0  0  0  0  0  0  0  0  0  0
   26.0287   55.5638   93.9665 C   0  0  0  0  0  0  0  0  0  0  0  0
   24.6527   54.5727   92.1026 C   0  0  0  0  0  0  0  0  0  0  0  0
   28.8765   57.6470   90.4274 N   0  0  0  0  0  0  0  0  0  0  0  0
   27.5898   57.7705   89.7415 C   0  0  0  0  0  0  0  0  0  0  0  0
   25.9539   57.0866   88.1492 C   0  0  0  0  0  0  0  0  0  0  0  0
   28.2546   57.4962   87.2897 C   0  0  0  0  0  0  0  0  0  0  0  0
   26.5689   57.9149   83.2627 C   0  0  0  0  0  0  0  0  0  0  0  0
   25.5016   57.1921   86.8406 C   0  0  0  0  0  0  0  0  0  0  0  0
   25.4428   58.5554   83.1994 N   0  0  0  0  0  0  0  0  0  0  0  0
   27.5798   57.2711   90.9994 C   0  0  0  0  0  0  0  0  0  0  0  0
   25.6370   57.8188   84.4583 C   0  0  0  0  0  0  0  0  0  0  0  0
  1  6  2  0
  1 16  1  0
  1 19  1  0
  2 10  1  0
  3  5  2  0
  3  8  1  0
  3 18  1  0
  4 12  1  0
  4 13  1  0
  4 14  1  0
  5  9  1  0
  6 14  1  0
  7  9  2  0
  7 10  1  0
  8 10  2  0
 11 12  1  0
 12 18  1  0
 13 16  2  0
 15 17  1  0
 15 19  1  0
M  END
