
     RDKit          3D

 22 23  0  0  0  0  0  0  0  0999 V2000
   23.0644   10.7189   24.9315 C   0  0  0  0  0  0  0  0  0  0  0  0
   23.7442    3.3441   26.5891 C   0  0  0  0  0  0  0  0  0  0  0  0
   22.4142    3.6841   25.9532 C   0  0  0  0  0  0  0  0  0  0  0  0
   24.1167    2.0712   26.0345 C   0  0  0  0  0  0  0  0  0  0  0  0
   22.6973   10.3116   27.4121 C   0  0  0  0  0  0  0  0  0  0  0  0
   22.0811    2.5971   25.0565 C   0  0  0  0  0  0  0  0  0  0  0  0
   23.4886    9.3119   24.8002 C   0  0  0  0  0  0  0  0  0  0  0  0
   23.8485    7.0842   28.5194 C   0  0  0  0  0  0  0  0  0  0  0  0
   22.4435    5.5444   27.3647 C   0  0  0  0  0  0  0  0  0  0  0  0
   23.5583    8.3990   26.0254 C   0  0  0  0  0  0  0  0  0  0  0  0
   22.5663    7.1468   28.8389 C   0  0  0  0  0  0  0  0  0  0  0  0
   22.6851   11.2005   26.2561 C   0  0  0  0  0  0  0  0  0  0  0  0
   22.5101    7.4000   31.6190 N   0  0  0  0  0  0  0  0  0  0  0  0
   22.9399    8.6673   31.2009 C   0  0  0  0  0  0  0  0  0  0  0  0
   23.1412    1.5995   25.1204 C   0  0  0  0  0  0  0  0  0  0  0  0
   23.8534    5.2444   27.6359 C   0  0  0  0  0  0  0  0  0  0  0  0
   23.1439    8.8924   27.3100 C   0  0  0  0  0  0  0  0  0  0  0  0
   23.5537    8.8910   29.8182 C   0  0  0  0  0  0  0  0  0  0  0  0
   24.5151    4.0057   27.4412 O   0  0  0  0  0  0  0  0  0  0  0  0
   22.8269    9.6993   31.9880 O   0  0  0  0  0  0  0  0  0  0  0  0
   23.2075    8.0521   28.6234 C   0  0  0  0  0  0  0  0  0  0  0  0
   24.6708    6.2856   28.0863 N   0  0  0  0  0  0  0  0  0  0  0  0
  1  7  2  0
  1 12  1  0
  2  3  1  0
  2  4  1  0
  2 19  1  0
  3  6  1  0
  4 15  1  0
  5 12  2  0
  5 17  1  0
  6 15  1  0
  7 10  1  0
  8 21  1  0
  8 22  1  0
  9 16  1  0
 10 17  2  0
 11 21  1  0
 13 14  1  0
 14 18  1  0
 14 20  2  0
 16 19  1  0
 16 22  1  0
 17 21  1  0
 18 21  1  0
M  END
