
     RDKit          3D

 22 22  0  0  0  0  0  0  0  0999 V2000
   21.3277    1.8217   29.2477 C   0  0  0  0  0  0  0  0  0  0  0  0
   23.2682    1.7202   27.9009 C   0  0  0  0  0  0  0  0  0  0  0  0
   23.0664   11.6215   25.7093 C   0  0  0  0  0  0  0  0  0  0  0  0
   23.4062    3.0192   27.8163 C   0  0  0  0  0  0  0  0  0  0  0  0
   21.5705    7.4005   27.7179 N   0  0  0  0  0  0  0  0  0  0  0  0
   24.5048    6.2576   29.0321 C   0  0  0  0  0  0  0  0  0  0  0  0
   22.2615   10.4342   23.3917 C   0  0  0  0  0  0  0  0  0  0  0  0
   22.7268    1.0905   29.1176 O   0  0  0  0  0  0  0  0  0  0  0  0
   26.3394    7.6802   28.5518 O   0  0  0  0  0  0  0  0  0  0  0  0
   23.1755    4.3395   26.7343 C   0  0  0  0  0  0  0  0  0  0  0  0
   23.0895    4.7096   26.4027 C   0  0  0  0  0  0  0  0  0  0  0  0
   25.2650    6.7812   28.5959 C   0  0  0  0  0  0  0  0  0  0  0  0
   22.0720    7.0231   28.0996 N   0  0  0  0  0  0  0  0  0  0  0  0
   22.6956    9.1181   25.6008 C   0  0  0  0  0  0  0  0  0  0  0  0
   25.4734    6.3973   29.0064 C   0  0  0  0  0  0  0  0  0  0  0  0
   23.2838    5.3293   27.4085 C   0  0  0  0  0  0  0  0  0  0  0  0
   22.7998    9.1189   27.0558 C   0  0  0  0  0  0  0  0  0  0  0  0
   22.7246   10.3869   24.9125 C   0  0  0  0  0  0  0  0  0  0  0  0
   23.2923   11.5813   27.1713 C   0  0  0  0  0  0  0  0  0  0  0  0
   23.5494    6.2321   28.3064 C   0  0  0  0  0  0  0  0  0  0  0  0
   23.1395   10.3267   27.8892 C   0  0  0  0  0  0  0  0  0  0  0  0
   22.4040    7.8785   27.5385 C   0  0  0  0  0  0  0  0  0  0  0  0
  1  8  1  0
  2  4  1  0
  2  8  1  0
  3 18  2  0
  3 19  1  0
  4 10  1  0
  5 13  1  0
  5 22  1  0
  6 15  1  0
  6 20  1  0
  7 18  1  0
  9 12  1  0
 10 11  1  0
 11 16  1  0
 12 15  1  0
 13 20  1  0
 14 17  2  0
 14 18  1  0
 16 20  1  0
 17 21  1  0
 17 22  1  0
 19 21  2  0
M  END
