
     RDKit          3D

 22 23  0  0  0  0  0  0  0  0999 V2000
   23.1175    7.4954   30.6963 C   0  0  0  0  0  0  0  0  0  0  0  0
   22.3329    4.1404   25.2027 C   0  0  0  0  0  0  0  0  0  0  0  0
   24.7279    4.4377   25.3213 C   0  0  0  0  0  0  0  0  0  0  0  0
   21.2687    7.3789   30.4918 C   0  0  0  0  0  0  0  0  0  0  0  0
   25.0969    5.2749   28.7365 C   0  0  0  0  0  0  0  0  0  0  0  0
   23.3400    5.9175   26.6111 C   0  0  0  0  0  0  0  0  0  0  0  0
   24.2097    9.1363   26.3890 C   0  0  0  0  0  0  0  0  0  0  0  0
   22.6119   10.9688   26.0848 C   0  0  0  0  0  0  0  0  0  0  0  0
   22.3603    7.7139   28.1518 C   0  0  0  0  0  0  0  0  0  0  0  0
   22.2869    8.9889   27.4748 C   0  0  0  0  0  0  0  0  0  0  0  0
   23.6135    3.7873   24.8005 C   0  0  0  0  0  0  0  0  0  0  0  0
   23.5658    7.0740   27.4757 C   0  0  0  0  0  0  0  0  0  0  0  0
   24.5805    5.4593   26.3431 C   0  0  0  0  0  0  0  0  0  0  0  0
   22.1706    5.2547   26.0905 C   0  0  0  0  0  0  0  0  0  0  0  0
   23.7036    6.6097   31.4634 C   0  0  0  0  0  0  0  0  0  0  0  0
   23.8475   10.4416   25.7579 C   0  0  0  0  0  0  0  0  0  0  0  0
   24.6067    5.6774   31.2708 C   0  0  0  0  0  0  0  0  0  0  0  0
   23.8482    8.1591   29.9845 C   0  0  0  0  0  0  0  0  0  0  0  0
   21.8061   10.2099   26.9105 N   0  0  0  0  0  0  0  0  0  0  0  0
   23.3017    8.4483   27.2523 C   0  0  0  0  0  0  0  0  0  0  0  0
   25.1386    5.2324   30.0329 C   0  0  0  0  0  0  0  0  0  0  0  0
   20.9752    7.5314   29.0436 O   0  0  0  0  0  0  0  0  0  0  0  0
  1  4  1  0
  1 15  1  0
  1 18  2  0
  2 11  2  0
  2 14  1  0
  3 11  1  0
  3 13  1  0
  4 22  1  0
  5 21  2  0
  6 12  1  0
  6 13  2  0
  6 14  1  0
  7 16  2  0
  7 20  1  0
  8 16  1  0
  8 19  2  0
  9 10  1  0
  9 22  1  0
 10 19  1  0
 10 20  2  0
 12 20  1  0
 15 17  2  3
 17 21  1  0
M  END
