
     RDKit          3D

 22 22  0  0  0  0  0  0  0  0999 V2000
   23.6750    9.8215   30.1962 C   0  0  0  0  0  0  0  0  0  0  0  0
   22.7058    6.9724   25.3336 C   0  0  0  0  0  0  0  0  0  0  0  0
   21.8547    2.3568   27.1387 C   0  0  0  0  0  0  0  0  0  0  0  0
   24.0340    1.5869   25.1628 C   0  0  0  0  0  0  0  0  0  0  0  0
   23.2787    4.2283   26.5931 C   0  0  0  0  0  0  0  0  0  0  0  0
   22.6529    9.9310   24.5703 C   0  0  0  0  0  0  0  0  0  0  0  0
   23.1024    2.8565   26.7328 C   0  0  0  0  0  0  0  0  0  0  0  0
   22.9192    6.3932   26.8667 C   0  0  0  0  0  0  0  0  0  0  0  0
   24.2879    2.2772   26.3871 O   0  0  0  0  0  0  0  0  0  0  0  0
   24.5827   10.3742   31.2478 C   0  0  0  0  0  0  0  0  0  0  0  0
   23.5755    6.4763   28.0621 N   0  0  0  0  0  0  0  0  0  0  0  0
   22.2420   10.3190   23.8591 O   0  0  0  0  0  0  0  0  0  0  0  0
   22.6058    8.2066   25.4631 C   0  0  0  0  0  0  0  0  0  0  0  0
   20.7654    3.2054   27.3346 N   0  0  0  0  0  0  0  0  0  0  0  0
   24.2118    9.4546   28.8664 C   0  0  0  0  0  0  0  0  0  0  0  0
   22.3628    9.7407   30.5415 C   0  0  0  0  0  0  0  0  0  0  0  0
   22.4246    7.9530   29.2564 O   0  0  0  0  0  0  0  0  0  0  0  0
   23.1530    9.2417   25.6707 N   0  0  0  0  0  0  0  0  0  0  0  0
   20.9720    4.4473   27.2255 C   0  0  0  0  0  0  0  0  0  0  0  0
   22.3612    5.0910   26.9321 C   0  0  0  0  0  0  0  0  0  0  0  0
   23.2858    7.1044   27.6791 C   0  0  0  0  0  0  0  0  0  0  0  0
   23.2247    8.5743   28.1891 C   0  0  0  0  0  0  0  0  0  0  0  0
  1 10  1  0
  1 15  1  0
  1 16  2  0
  2  8  1  0
  2 13  1  0
  3  7  2  0
  3 14  1  0
  4  9  1  0
  5  7  1  0
  5 20  2  0
  6 12  1  0
  6 18  1  0
  7  9  1  0
  8 20  1  0
  8 21  1  0
 11 21  2  0
 13 18  1  0
 14 19  2  0
 15 22  1  0
 17 22  1  0
 19 20  1  0
 21 22  1  0
M  END
