
     RDKit          3D

 22 22  0  0  0  0  0  0  0  0999 V2000
   23.4151    8.5050   26.2614 C   0  0  0  0  0  0  0  0  0  0  0  0
   21.9860    9.7570   24.4675 C   0  0  0  0  0  0  0  0  0  0  0  0
   24.7118    6.0636   27.0742 C   0  0  0  0  0  0  0  0  0  0  0  0
   20.9532    4.3153   27.1042 C   0  0  0  0  0  0  0  0  0  0  0  0
   23.2382    9.4726   31.7837 Cl  0  0  0  0  0  0  0  0  0  0  0  0
   21.7789   10.1322   25.9529 C   0  0  0  0  0  0  0  0  0  0  0  0
   25.3723    9.6349   29.9306 O   0  0  0  0  0  0  0  0  0  0  0  0
   22.1474    8.6953   25.5157 C   0  0  0  0  0  0  0  0  0  0  0  0
   25.5054    5.3489   28.2298 C   0  0  0  0  0  0  0  0  0  0  0  0
   21.4259    5.4048   26.8334 C   0  0  0  0  0  0  0  0  0  0  0  0
   21.4362    1.9619   27.5723 C   0  0  0  0  0  0  0  0  0  0  0  0
   19.5441    4.0053   27.1537 C   0  0  0  0  0  0  0  0  0  0  0  0
   20.0468    1.6526   27.5056 C   0  0  0  0  0  0  0  0  0  0  0  0
   24.4586    7.6769   27.1194 S   0  0  0  0  0  4  0  0  0  0  0  0
   22.2233    5.9655   26.7323 N   0  0  0  0  0  0  0  0  0  0  0  0
   26.1289    9.7156   31.0885 C   0  0  0  0  0  0  0  0  0  0  0  0
   23.4691    8.9467   27.7483 C   0  0  0  0  0  0  0  0  0  0  0  0
   21.8620    3.2863   27.4138 C   0  0  0  0  0  0  0  0  0  0  0  0
   23.4097    8.4308   29.2277 C   0  0  0  0  0  0  0  0  0  0  0  0
   19.0929    2.6560   27.3080 C   0  0  0  0  0  0  0  0  0  0  0  0
   23.9175    9.6126   30.0827 C   0  0  0  0  0  0  0  0  0  0  0  0
   23.1843    5.7667   26.9057 C   0  0  0  0  0  0  0  0  0  0  0  0
  1  8  1  0
  1 14  1  0
  2  6  1  0
  2  8  1  0
  3  9  1  0
  3 14  1  0
  3 22  1  0
  4 10  1  0
  4 12  1  0
  4 18  2  0
  5 21  1  0
  7 16  1  0
  7 21  1  0
 10 15  2  3
 11 13  1  0
 11 18  1  0
 12 20  1  0
 13 20  2  0
 14 17  1  0
 15 22  1  0
 17 19  1  0
 19 21  1  0
M  END
