REMARK  Name = 
REMARK  6 active torsions:
REMARK  status: ('A' for Active; 'I' for Inactive)
REMARK    1  A    between atoms: C_2  and  C_3
REMARK    2  A    between atoms: C_6  and  C_17
REMARK    3  A    between atoms: C_7  and  C_8
REMARK    4  A    between atoms: C_7  and  C_17
REMARK    5  A    between atoms: C_10  and  C_19
REMARK    6  A    between atoms: C_10  and  C_20
REMARK                            x       y       z     vdW  Elec       q    Type
REMARK                         _______ _______ _______ _____ _____    ______ ____
ROOT
ATOM      1  C   UNL     1      22.671  10.259  28.828  0.00  0.00    +0.000 C 
ATOM      2  C   UNL     1      23.265   7.969  28.582  0.00  0.00    +0.000 C 
ATOM      3  C   UNL     1      23.147   9.151  29.341  0.00  0.00    +0.000 C 
ATOM      4  C   UNL     1      22.328  10.333  27.432  0.00  0.00    +0.000 C 
ATOM      5  C   UNL     1      22.141   9.201  25.060  0.00  0.00    +0.000 C 
ATOM      6  C   UNL     1      22.494   6.204  26.660  0.00  0.00    +0.000 C 
ATOM      7  C   UNL     1      22.584   6.647  26.701  0.00  0.00    +0.000 C 
ATOM      8  C   UNL     1      22.388   9.095  26.534  0.00  0.00    +0.000 C 
ATOM      9  O   UNL     1      22.012  11.565  27.157  0.00  0.00    +0.000 OA
ATOM     10  C   UNL     1      22.860   5.004  25.609  0.00  0.00    +0.000 C 
ATOM     11  C   UNL     1      23.578   4.183  24.636  0.00  0.00    +0.000 C 
ATOM     12  C   UNL     1      22.727   7.720  27.180  0.00  0.00    +0.000 C 
ENDROOT
BRANCH   2  13
ATOM     13  C   UNL     1      24.234   7.010  29.376  0.00  0.00    +0.000 C 
ATOM     14  C   UNL     1      25.758   7.271  29.671  0.00  0.00    +0.000 C 
ENDBRANCH   2  13
BRANCH  11  15
ATOM     15  C   UNL     1      24.529   3.088  24.549  0.00  0.00    +0.000 C 
BRANCH  15  17
ATOM     16  C   UNL     1      25.301   3.198  26.635  0.00  0.00    +0.000 C 
ATOM     17  C   UNL     1      25.199   2.661  25.500  0.00  0.00    +0.000 C 
BRANCH  16  18
ATOM     18  C   UNL     1      25.018   4.216  27.228  0.00  0.00    +0.000 C 
BRANCH  18  19
ATOM     19  C   UNL     1      25.994   5.074  28.005  0.00  0.00    +0.000 C 
BRANCH  19  21
ATOM     20  C   UNL     1      27.863   3.406  28.498  0.00  0.00    +0.000 C 
ATOM     21  C   UNL     1      26.895   4.490  29.160  0.00  0.00    +0.000 C 
ATOM     22  C   UNL     1      27.608   5.286  30.202  0.00  0.00    +0.000 C 
ENDBRANCH  19  21
ENDBRANCH  18  19
ENDBRANCH  16  18
ENDBRANCH  15  17
ENDBRANCH  11  15
TORSDOF 6
